Commwspython/server/sm_files/dss_files/VVE_Curr_Elem.Txt

CIRCUIT ELEMENT CURRENTS

(Currents into element from indicated bus)

Power Delivery Elements

  Bus Phase    Magnitude, A     Angle      (Real)   +j  (Imag)

ELEMENT = "Vsource.SOURCE"
MT       1           131.59 /_  153.7 =    -117.92 +j      58.4
MT       2           131.59 /_   33.7 =     109.53 +j    72.919
MT       3           131.59 /_  -86.3 =     8.3825 +j   -131.32
------------
MT       0           131.59 /_  -26.3 =     117.92 +j     -58.4
MT       0           131.59 /_ -146.3 =    -109.53 +j   -72.919
MT       0           131.59 /_   93.7 =    -8.3825 +j    131.32

ELEMENT = "Line.10_20"
10       1      1.8921E-012 /_ -122.7 =  -1.0232E-012 +j -1.5916E-012
10       2      7.1902E-013 /_  161.6 =  -6.8212E-013 +j 2.2737E-013
10       3       1.819E-012 /_   90.0 =          0 +j 1.819E-012
------------
20       1         0.030185 /_   89.2 =  0.00043012 +j  0.030181
20       2         0.030185 /_  -30.8 =   0.025923 +j -0.015463
20       3         0.030185 /_ -150.8 =  -0.026353 +j -0.014718

ELEMENT = "Line.20_30"
20       1           16.501 /_  153.4 =    -14.759 +j     7.379
20       2           16.501 /_   33.4 =      13.77 +j    9.0919
20       3           16.501 /_  -86.6 =    0.98892 +j   -16.471
------------
30       1           16.487 /_  -26.5 =     14.759 +j   -7.3488
30       2           16.487 /_ -146.5 =    -13.744 +j   -9.1073
30       3           16.487 /_   93.5 =    -1.0153 +j    16.456

ELEMENT = "Line.40_50"
40       1             21.2 /_  -26.5 =      18.98 +j   -9.4452
40       2             21.2 /_ -146.5 =     -17.67 +j   -11.714
40       3             21.2 /_   93.5 =    -1.3101 +j     21.16
------------
50       1           21.213 /_  153.5 =    -18.979 +j    9.4753
50       2           21.213 /_   33.5 =     17.696 +j    11.699
50       3           21.213 /_  -86.5 =     1.2838 +j   -21.174

ELEMENT = "Line.50_60"
50       1         0.060351 /_   89.2 =  0.00087981 +j  0.060345
50       2         0.060351 /_  -30.8 =    0.05182 +j -0.030934
50       3         0.060351 /_ -150.8 =    -0.0527 +j  -0.02941
------------
60       1         0.030177 /_  -90.8 =  -0.00043995 +j -0.030174
60       2         0.030177 /_  149.2 =  -0.025912 +j  0.015468
60       3         0.030177 /_   29.2 =   0.026351 +j  0.014706

ELEMENT = "Line.70_80"
70       1         0.030174 /_   89.2 =  0.0004399 +j  0.030171
70       2         0.030174 /_  -30.8 =   0.025909 +j -0.015466
70       3         0.030174 /_ -150.8 =  -0.026349 +j -0.014704
------------
80       1      1.1197E-012 /_  -66.0 =  4.5475E-013 +j -1.0232E-012
80       2      6.8212E-013 /_    0.0 =  6.8212E-013 +j         0
80       3      2.5724E-012 /_   45.0 =  1.819E-012 +j 1.819E-012

ELEMENT = "Line.11_21"
11       1           46.753 /_  -26.1 =     41.988 +j   -20.563
11       2           46.753 /_ -146.1 =    -38.802 +j   -26.081
11       3           46.753 /_   93.9 =    -3.1862 +j    46.644
------------
21       1           46.766 /_  153.9 =    -41.988 +j    20.593
21       2           46.766 /_   33.9 =     38.828 +j    26.066
21       3           46.766 /_  -86.1 =     3.1597 +j   -46.659

ELEMENT = "Line.21_31"
21       1           21.089 /_  -26.1 =     18.931 +j   -9.2932
21       2           21.089 /_ -146.1 =    -17.514 +j   -11.749
21       3           21.089 /_   93.9 =    -1.4176 +j    21.042
------------
31       1           21.103 /_  153.8 =    -18.931 +j    9.3236
31       2           21.103 /_   33.8 =      17.54 +j    11.733
31       3           21.103 /_  -86.2 =     1.3912 +j   -21.057

ELEMENT = "Line.41_51"
41       1           21.103 /_  -26.2 =     18.931 +j   -9.3236
41       2           21.103 /_ -146.2 =     -17.54 +j   -11.733
41       3           21.103 /_   93.8 =    -1.3912 +j    21.057
------------
51       1           21.116 /_  153.7 =    -18.931 +j    9.3541
51       2           21.116 /_   33.7 =     17.566 +j    11.718
51       3           21.116 /_  -86.3 =     1.3647 +j   -21.072

ELEMENT = "Line.51_61"
51       1           21.116 /_  -26.3 =     18.931 +j   -9.3541
51       2           21.116 /_ -146.3 =    -17.566 +j   -11.718
51       3           21.116 /_   93.7 =    -1.3647 +j    21.072
------------
61       1           21.129 /_  153.6 =    -18.931 +j    9.3845
61       2           21.129 /_   33.6 =     17.593 +j    11.702
61       3           21.129 /_  -86.4 =     1.3383 +j   -21.087

ELEMENT = "Line.71_81"
61       1           21.129 /_  -26.4 =     18.931 +j   -9.3845
61       2           21.129 /_ -146.4 =    -17.593 +j   -11.702
61       3           21.129 /_   93.6 =    -1.3383 +j    21.087
------------
71       1           21.142 /_  153.6 =    -18.931 +j    9.4148
71       2           21.142 /_   33.6 =     17.619 +j    11.687
71       3           21.142 /_  -86.4 =     1.3118 +j   -21.102

ELEMENT = "Line.12_22"
12       1           84.834 /_  -26.5 =     75.928 +j   -37.837
12       2           84.834 /_ -146.5 =    -70.732 +j   -46.837
12       3           84.834 /_   93.5 =    -5.1963 +j    84.674
------------
22       1           84.847 /_  153.5 =    -75.928 +j    37.868
22       2           84.847 /_   33.5 =     70.758 +j    46.822
22       3           84.847 /_  -86.5 =     5.1698 +j    -84.69

ELEMENT = "Line.22_32"
22       1           84.847 /_  -26.5 =     75.928 +j   -37.868
22       2           84.847 /_ -146.5 =    -70.758 +j   -46.822
22       3           84.847 /_   93.5 =    -5.1698 +j     84.69
------------
32       1            84.86 /_  153.5 =    -75.928 +j    37.898
32       2            84.86 /_   33.5 =     70.784 +j    46.806
32       3            84.86 /_  -86.5 =     5.1434 +j   -84.704

ELEMENT = "Line.42_52"
42       1           21.256 /_  -26.6 =     19.014 +j   -9.5024
42       2           21.256 /_ -146.6 =    -17.736 +j   -11.715
42       3           21.256 /_   93.4 =    -1.2774 +j    21.217
------------
52       1           21.269 /_  153.4 =    -19.013 +j    9.5326
52       2           21.269 /_   33.4 =     17.762 +j      11.7
52       3           21.269 /_  -86.6 =     1.2511 +j   -21.232

ELEMENT = "Line.52_62"
52       1           21.269 /_  -26.6 =     19.013 +j   -9.5326
52       2           21.269 /_ -146.6 =    -17.762 +j     -11.7
52       3           21.269 /_   93.4 =    -1.2511 +j    21.232
------------
62       1           21.282 /_  153.3 =    -19.013 +j    9.5627
62       2           21.282 /_   33.3 =     17.788 +j    11.684
62       3           21.282 /_  -86.7 =     1.2247 +j   -21.247

ELEMENT = "Line.62_72"
62       1           21.282 /_  -26.7 =     19.013 +j   -9.5627
62       2           21.282 /_ -146.7 =    -17.788 +j   -11.684
62       3           21.282 /_   93.3 =    -1.2247 +j    21.247
------------
72       1           21.295 /_  153.2 =    -19.012 +j    9.5928
72       2           21.295 /_   33.2 =     17.814 +j    11.669
72       3           21.295 /_  -86.8 =     1.1984 +j   -21.261

ELEMENT = "Line.72_82"
72       1         0.030076 /_   89.0 =  0.00052741 +j  0.030072
72       2         0.030076 /_  -31.0 =   0.025779 +j -0.015493
72       3         0.030076 /_ -151.0 =  -0.026306 +j -0.014579
------------
82       1      2.2394E-012 /_ -114.0 =  -9.0949E-013 +j -2.0464E-012
82       2      9.1657E-013 /_   29.7 =  7.9581E-013 +j 4.5475E-013
82       3      2.0337E-012 /_   63.4 =  9.0949E-013 +j 1.819E-012

ELEMENT = "Line.CF1"
30       1           16.487 /_  153.5 =    -14.759 +j    7.3488
30       2           16.487 /_   33.5 =     13.744 +j    9.1073
30       3           16.487 /_  -86.5 =     1.0153 +j   -16.456
------------
40       1           16.487 /_  -26.5 =     14.759 +j   -7.3488
40       2           16.487 /_ -146.5 =    -13.744 +j   -9.1073
40       3           16.487 /_   93.5 =    -1.0153 +j    16.456

ELEMENT = "Line.CF2"
60       1         0.030177 /_   89.2 =  0.00043995 +j  0.030174
60       2         0.030177 /_  -30.8 =   0.025912 +j -0.015468
60       3         0.030177 /_ -150.8 =  -0.026351 +j -0.014706
------------
70       1         0.030174 /_  -90.8 =  -0.0004399 +j -0.030171
70       2         0.030174 /_  149.2 =  -0.025909 +j  0.015466
70       3         0.030174 /_   29.2 =   0.026349 +j  0.014704

ELEMENT = "Line.DJ2"
MT       1           46.753 /_  -26.1 =     41.988 +j   -20.563
MT       2           46.753 /_ -146.1 =    -38.802 +j   -26.081
MT       3           46.753 /_   93.9 =    -3.1862 +j    46.644
------------
11       1           46.753 /_  153.9 =    -41.988 +j    20.563
11       2           46.753 /_   33.9 =     38.802 +j    26.081
11       3           46.753 /_  -86.1 =     3.1862 +j   -46.644

ELEMENT = "Line.CF3"
31       1           21.103 /_  -26.2 =     18.931 +j   -9.3236
31       2           21.103 /_ -146.2 =     -17.54 +j   -11.733
31       3           21.103 /_   93.8 =    -1.3912 +j    21.057
------------
41       1           21.103 /_  153.8 =    -18.931 +j    9.3236
41       2           21.103 /_   33.8 =      17.54 +j    11.733
41       3           21.103 /_  -86.2 =     1.3912 +j   -21.057

ELEMENT = "Line.DJ3"
MT       1           84.834 /_  -26.5 =     75.928 +j   -37.837
MT       2           84.834 /_ -146.5 =    -70.732 +j   -46.837
MT       3           84.834 /_   93.5 =    -5.1963 +j    84.674
------------
12       1           84.834 /_  153.5 =    -75.928 +j    37.837
12       2           84.834 /_   33.5 =     70.732 +j    46.837
12       3           84.834 /_  -86.5 =     5.1963 +j   -84.674

ELEMENT = "Line.CF4"
32       1           58.943 /_  -26.5 =     52.752 +j   -26.296
32       2           58.943 /_ -146.5 =    -49.149 +j   -32.537
32       3           58.943 /_   93.5 =    -3.6029 +j    58.833
------------
42       1           58.943 /_  153.5 =    -52.752 +j    26.296
42       2           58.943 /_   33.5 =     49.149 +j    32.537
42       3           58.943 /_  -86.5 =     3.6029 +j   -58.833

ELEMENT = "Line.CF5"
40       1           37.687 /_  153.5 =    -33.739 +j    16.794
40       2           37.687 /_   33.5 =     31.413 +j    20.822
40       3           37.687 /_  -86.5 =     2.3254 +j   -37.616
------------
42       1           37.687 /_  -26.5 =     33.739 +j   -16.794
42       2           37.687 /_ -146.5 =    -31.413 +j   -20.822
42       3           37.687 /_   93.5 =    -2.3254 +j    37.616

= = = = = = = = = = = = = = = = = = =  = = = = = = = = = = =  = =

Power Conversion Elements

  Bus Phase    Magnitude, A     Angle      (Real)   +j  (Imag)

ELEMENT = "Load.CARGA_20"
20       1           16.514 /_  -26.7 =     14.758 +j   -7.4091
20       2           16.514 /_ -146.7 =    -13.796 +j   -9.0766
20       3           16.514 /_   93.3 =    -0.9627 +j    16.486
20       0      3.2341E-009 /_ -146.8 =  -2.7058E-009 +j -1.7715E-009

ELEMENT = "Load.CARGA_50"
50       1            21.24 /_  -26.7 =     18.979 +j   -9.5356
50       2            21.24 /_ -146.7 =    -17.747 +j   -11.668
50       3            21.24 /_   93.3 =    -1.2313 +j    21.204
50       0      4.1608E-009 /_ -146.8 =  -3.4819E-009 +j -2.2778E-009

ELEMENT = "Load.CARGA_21"
21       1           25.676 /_  -26.1 =     23.056 +j     -11.3
21       2           25.676 /_ -146.1 =    -21.314 +j   -14.317
21       3           25.676 /_   93.9 =    -1.7421 +j    25.617
21       0      5.0144E-009 /_ -146.1 =  -4.1615E-009 +j -2.7974E-009

ELEMENT = "Load.CARGA_71"
71       1           21.143 /_  -26.4 =     18.931 +j   -9.4148
71       2           21.143 /_ -146.4 =    -17.619 +j   -11.687
71       3           21.143 /_   93.6 =    -1.3119 +j    21.102
71       0      4.1333E-009 /_ -146.4 =  -3.4425E-009 +j -2.2877E-009

ELEMENT = "Load.CARGA_32"
32       1           25.917 /_  -26.6 =     23.176 +j   -11.601
32       2           25.917 /_ -146.6 =    -21.635 +j    -14.27
32       3           25.917 /_   93.4 =    -1.5407 +j    25.872
32       0      5.0749E-009 /_ -146.7 =  -4.2426E-009 +j -2.7847E-009

ELEMENT = "Load.CARGA_72"
72       1           21.308 /_  -26.8 =     19.012 +j   -9.6228
72       2           21.308 /_ -146.8 =     -17.84 +j   -11.653
72       3           21.308 /_   93.2 =    -1.1723 +j    21.276
72       0       4.175E-009 /_ -147.0 =  -3.5006E-009 +j -2.2752E-009

